/*--------------------------------*- C++ -*----------------------------------*\
  =========                 |
  \\      /  F ield         | OpenFOAM: The Open Source CFD Toolbox
   \\    /   O peration     | Website:  https://openfoam.org
    \\  /    A nd           | Version:  9
     \\/     M anipulation  |
\*---------------------------------------------------------------------------*/
FoamFile
{
    version     2.1;
    format      ascii;
    class       dictionary;
    location    "constant";
    object      radiationProperties;
}
// * * * * * * * * * * * * * * * * * * * * * * * * * * * * * * * * * * * * * //

radiation       off;

heterogeneousRadiationModel  none;

//This file needs to exist, or else the program does not run. Zeroes will simply return as source terms when set to 'none'

heterogeneousAbsorptionEmissionModel heterogeneousConstantAbsorptionEmission;

solverFreq 1;

heterogeneousConstantAbsorptionEmissionCoeffs
{
    a               a  [ 0 -1  0 0 0 0 0 ] 0.;
    as              as [ 0 -1  0 0 0 0 0 ] 0.;
    borderAs        borderAs [ 0 -1  0 0 0 0 0 ] 0.; 
    E               E  [ 1 -1 -3 0 0 0 0 ] 0.0;
    borderL         borderL  [ 0 1 0 0 0 0 0 ] 0.; 
}

scatterModel    constant;

sigma           sigma [ 0 -1 0 0 0 0 0 ] 0.; 
C               C [ 0 0 0 0 0 0 0 ] 0.; 


// ************************************************************************* //
